@<TRIPOS>MOLECULE
01
    64    72     1     0     0
SMALL
NO_CHARGES
****
Generated from the CSD

@<TRIPOS>ATOM
     1 Ir1     12.5412   0.5771   4.3070   Ir        1 RES1   0.0000
     2 N1      14.1173   0.1196   2.9751   N.2       1 RES1   0.0000
     3 N2      14.9105  -0.8935   3.4037   N.pl3     1 RES1   0.0000
     4 N3      11.2529  -0.8507   3.4239   N.2       1 RES1   0.0000
     5 N4      10.1499  -1.1121   4.1727   N.pl3     1 RES1   0.0000
     6 N5      11.9130   2.1798   3.0823   N.2       1 RES1   0.0000
     7 N6      12.6046   3.3107   3.3147   N.pl3     1 RES1   0.0000
     8 F1      15.0891  -2.5317   9.4097   F         1 RES1   0.0000
     9 F2      13.6026  -3.9018   8.8027   F         1 RES1   0.0000
    10 F3      13.0283  -1.9133   9.3369   F         1 RES1   0.0000
    11 F4      10.6629   1.9953   9.6000   F         1 RES1   0.0000
    12 F5       8.5425   1.5768   9.5919   F         1 RES1   0.0000
    13 F6       9.2867   3.2578   8.5315   F         1 RES1   0.0000
    14 F7      16.9468   2.6377   7.8313   F         1 RES1   0.0000
    15 F8      15.1661   2.7846   9.0131   F         1 RES1   0.0000
    16 F9      16.1834   4.5373   8.3413   F         1 RES1   0.0000
    17 C1      13.5431  -0.8200   5.3585   C.ar      1 RES1   0.0000
    18 C2      14.6391  -1.4179   4.7109   C.ar      1 RES1   0.0000
    19 C3      15.4445  -2.3951   5.2654   C.ar      1 RES1   0.0000
    20 H1      16.1466  -2.7692   4.7838   H         1 RES1   0.0000
    21 C4      15.1696  -2.7965   6.5565   C.ar      1 RES1   0.0000
    22 H2      15.6826  -3.4679   6.9490   H         1 RES1   0.0000
    23 C5      14.1611  -2.2242   7.2599   C.ar      1 RES1   0.0000
    24 C6      13.3610  -1.2437   6.6900   C.ar      1 RES1   0.0000
    25 H3      12.6886  -0.8542   7.2040   H         1 RES1   0.0000
    26 C7      10.9973   0.6030   5.5973   C.ar      1 RES1   0.0000
    27 C8       9.9958  -0.3553   5.3666   C.ar      1 RES1   0.0000
    28 C9       8.9452  -0.6167   6.2165   C.ar      1 RES1   0.0000
    29 H4       8.3307  -1.2881   6.0303   H         1 RES1   0.0000
    30 C10      8.8349   0.1537   7.3619   C.ar      1 RES1   0.0000
    31 H5       8.1398  -0.0017   7.9608   H         1 RES1   0.0000
    32 C11      9.7436   1.1377   7.6193   C.ar      1 RES1   0.0000
    33 C12     10.8239   1.3684   6.7548   C.ar      1 RES1   0.0000
    34 H6      11.4350   2.0397   6.9571   H         1 RES1   0.0000
    35 C13     13.5431   2.1132   5.1440   C.ar      1 RES1   0.0000
    36 C14     13.4520   3.3347   4.4681   C.ar      1 RES1   0.0000
    37 C15     14.1016   4.4792   4.8647   C.ar      1 RES1   0.0000
    38 H7      14.0210   5.2565   4.3629   H         1 RES1   0.0000
    39 C16     14.8632   4.4724   5.9858   C.ar      1 RES1   0.0000
    40 H8      15.3167   5.2412   6.2489   H         1 RES1   0.0000
    41 C17     14.9578   3.3227   6.7252   C.ar      1 RES1   0.0000
    42 C18     14.2977   2.1627   6.3339   C.ar      1 RES1   0.0000
    43 H9      14.3572   1.4025   6.8641   H         1 RES1   0.0000
    44 C19     14.5481   0.4390   1.7565   C.2       1 RES1   0.0000
    45 H10     14.1856   1.1087   1.2223   H         1 RES1   0.0000
    46 C20     15.6108  -0.3724   1.4044   C.2       1 RES1   0.0000
    47 H11     16.0853  -0.3622   0.6030   H         1 RES1   0.0000
    48 C21     15.8174  -1.1856   2.4647   C.2       1 RES1   0.0000
    49 H12     16.4793  -1.8365   2.5335   H         1 RES1   0.0000
    50 C22     11.1584  -1.5990   2.3271   C.2       1 RES1   0.0000
    51 H13     11.7834  -1.6110   1.6391   H         1 RES1   0.0000
    52 C23     10.0098  -2.3507   2.3555   C.2       1 RES1   0.0000
    53 H14      9.7139  -2.9554   1.7160   H         1 RES1   0.0000
    54 C24      9.4022  -2.0261   3.5211   C.2       1 RES1   0.0000
    55 H15      8.5968  -2.3763   3.8246   H         1 RES1   0.0000
    56 C25     11.1934   2.3934   1.9831   C.2       1 RES1   0.0000
    57 H16     10.6313   1.7750   1.5744   H         1 RES1   0.0000
    58 C26     11.4175   3.6866   1.5541   C.2       1 RES1   0.0000
    59 H17     11.0165   4.1017   0.8216   H         1 RES1   0.0000
    60 C27     12.3209   4.2315   2.3878   C.2       1 RES1   0.0000
    61 H18     12.6799   5.0874   2.3312   H         1 RES1   0.0000
    62 C28     13.9650  -2.5762   8.7136   C.3       1 RES1   0.0000
    63 C29      9.5931   1.9902   8.8472   C.3       1 RES1   0.0000
    64 C30     15.7947   3.2783   7.9730   C.3       1 RES1   0.0000
@<TRIPOS>BOND
     1     1     2    1
     2     2     3    1
     3     3    18    1
     4     4     1    1
     5     5     4    1
     6     6     1    1
     7     7     6    1
     8     8    62    1
     9     9    62    1
    10    10    62    1
    11    11    63    1
    12    12    63    1
    13    13    63    1
    14    14    64    1
    15    15    64    1
    16    16    64    1
    17    17     1    1
    18    18    17   ar
    19    19    18   ar
    20    20    19    1
    21    21    19   ar
    22    22    21    1
    23    23    21   ar
    24    24    17   ar
    25    25    24    1
    26    26     1    1
    27    27     5    1
    28    28    27   ar
    29    29    28    1
    30    30    28   ar
    31    31    30    1
    32    32    30   ar
    33    33    26   ar
    34    34    33    1
    35    35     1    1
    36    36     7    1
    37    37    36   ar
    38    38    37    1
    39    39    37   ar
    40    40    39    1
    41    41    39   ar
    42    42    35   ar
    43    43    42    1
    44    44     2    2
    45    45    44    1
    46    46    44    1
    47    47    46    1
    48    48     3    1
    49    49    48    1
    50    50     4    2
    51    51    50    1
    52    52    50    1
    53    53    52    1
    54    54     5    1
    55    55    54    1
    56    56     6    2
    57    57    56    1
    58    58    56    1
    59    59    58    1
    60    60     7    1
    61    61    60    1
    62    62    23    1
    63    63    32    1
    64    64    41    1
    65    23    24   ar
    66    26    27   ar
    67    32    33   ar
    68    35    36   ar
    69    41    42   ar
    70    46    48    2
    71    52    54    2
    72    58    60    2
@<TRIPOS>SUBSTRUCTURE
     1 RES1        1 GROUP             0 ****  ****    0  
