@<TRIPOS>MOLECULE
01
    82    93     1     0     0
SMALL
NO_CHARGES
****
Generated from the CSD

@<TRIPOS>ATOM
     1 Ir1      6.4022   4.6401  12.6719   Ir        1 RES1   0.0000
     2 N1       6.2940   3.4360  15.5835   N.pl3     1 RES1   0.0000
     3 N2       7.9241   2.7974  14.3103   N.pl3     1 RES1   0.0000
     4 N3       3.9360   6.4321  13.6472   N.pl3     1 RES1   0.0000
     5 N4       3.4730   4.5618  12.6659   N.pl3     1 RES1   0.0000
     6 N5       6.5409   5.7403   9.7094   N.pl3     1 RES1   0.0000
     7 N6       7.3797   6.9834  11.2638   N.pl3     1 RES1   0.0000
     8 C1       6.7727   3.5428  14.3258   C.3       1 RES1   0.0000
     9 C2       7.1765   2.6985  16.3910   C.ar      1 RES1   0.0000
    10 C3       7.1408   2.4018  17.7450   C.ar      1 RES1   0.0000
    11 H1       6.4033   2.6548  18.2885   H         1 RES1   0.0000
    12 C4       8.2227   1.7191  18.2729   C.ar      1 RES1   0.0000
    13 H2       8.2292   1.4890  19.1953   H         1 RES1   0.0000
    14 C5       9.2962   1.3673  17.4733   C.ar      1 RES1   0.0000
    15 H3      10.0384   0.9261  17.8708   H         1 RES1   0.0000
    16 C6       9.3261   1.6317  16.1270   C.ar      1 RES1   0.0000
    17 H4      10.0591   1.3673  15.5835   H         1 RES1   0.0000
    18 C7       8.2289   2.3087  15.5929   C.ar      1 RES1   0.0000
    19 C8       8.6186   2.7042  13.0882   C.ar      1 RES1   0.0000
    20 C9       9.6065   1.7800  12.8476   C.ar      1 RES1   0.0000
    21 H5       9.8862   1.1886  13.5370   H         1 RES1   0.0000
    22 C10     10.1959   1.7115  11.5898   C.ar      1 RES1   0.0000
    23 H6      10.8770   1.0745  11.4097   H         1 RES1   0.0000
    24 C11      9.7783   2.5844  10.6100   C.ar      1 RES1   0.0000
    25 H7      10.1892   2.5616   9.7545   H         1 RES1   0.0000
    26 C12      8.7579   3.5029  10.8600   C.ar      1 RES1   0.0000
    27 H8       8.4907   4.0886  10.1613   H         1 RES1   0.0000
    28 C13      8.1081   3.5980  12.1038   C.ar      1 RES1   0.0000
    29 C14      5.0835   4.0468  16.0991   C.3       1 RES1   0.0000
    30 H9       5.3188   4.7866  16.6969   H         1 RES1   0.0000
    31 H10      4.5659   3.3793  16.5959   H         1 RES1   0.0000
    32 H11      4.5466   4.3872  15.3537   H         1 RES1   0.0000
    33 C15      4.5312   5.3495  13.0851   C.3       1 RES1   0.0000
    34 C16      2.5451   6.3516  13.5743   C.ar      1 RES1   0.0000
    35 C17      1.5804   7.2454  14.0013   C.ar      1 RES1   0.0000
    36 H12      1.8103   8.0556  14.4423   H         1 RES1   0.0000
    37 C18      0.2601   6.9012  13.7528   C.ar      1 RES1   0.0000
    38 H13     -0.4368   7.4832  14.0339   H         1 RES1   0.0000
    39 C19     -0.0552   5.7165  13.0991   C.ar      1 RES1   0.0000
    40 H14     -0.9685   5.5149  12.9299   H         1 RES1   0.0000
    41 C20      0.9079   4.8284  12.6861   C.ar      1 RES1   0.0000
    42 H15      0.6746   4.0202  12.2467   H         1 RES1   0.0000
    43 C21      2.2426   5.1574  12.9361   C.ar      1 RES1   0.0000
    44 C22      3.8016   3.3165  12.0355   C.ar      1 RES1   0.0000
    45 C23      2.8549   2.3942  11.6550   C.ar      1 RES1   0.0000
    46 H16      1.9304   2.5825  11.7653   H         1 RES1   0.0000
    47 C24      3.2599   1.1962  11.1162   C.ar      1 RES1   0.0000
    48 H17      2.6140   0.5439  10.8756   H         1 RES1   0.0000
    49 C25      4.5982   0.9432  10.9284   C.ar      1 RES1   0.0000
    50 H18      4.8790   0.1217  10.5448   H         1 RES1   0.0000
    51 C26      5.5351   1.8979  11.3010   C.ar      1 RES1   0.0000
    52 H19      6.4564   1.7115  11.1582   H         1 RES1   0.0000
    53 C27      5.1763   3.1321  11.8818   C.ar      1 RES1   0.0000
    54 C28      4.6184   7.6011  14.1969   C.3       1 RES1   0.0000
    55 H20      5.5013   7.3367  14.5308   H         1 RES1   0.0000
    56 H21      4.0877   7.9719  14.9345   H         1 RES1   0.0000
    57 H22      4.7224   8.2781  13.4966   H         1 RES1   0.0000
    58 C29      6.6540   5.8420  11.0541   C.3       1 RES1   0.0000
    59 C30      7.2534   6.7624   9.0588   C.ar      1 RES1   0.0000
    60 C31      7.4901   7.0039   7.7219   C.ar      1 RES1   0.0000
    61 H23      7.0938   6.4715   7.0418   H         1 RES1   0.0000
    62 C32      8.3328   8.0594   7.4222   C.ar      1 RES1   0.0000
    63 H24      8.5109   8.2647   6.5123   H         1 RES1   0.0000
    64 C33      8.9261   8.8276   8.4144   C.ar      1 RES1   0.0000
    65 H25      9.5188   9.5294   8.1675   H         1 RES1   0.0000
    66 C34      8.6716   8.5956   9.7545   C.ar      1 RES1   0.0000
    67 H26      9.0680   9.1281  10.4330   H         1 RES1   0.0000
    68 C35      7.8175   7.5554  10.0635   C.ar      1 RES1   0.0000
    69 C36      7.6931   7.3120  12.6116   C.ar      1 RES1   0.0000
    70 C37      8.0703   8.5956  12.9951   C.ar      1 RES1   0.0000
    71 H27      8.1410   9.2955  12.3569   H         1 RES1   0.0000
    72 C38      8.3367   8.8257  14.3274   C.ar      1 RES1   0.0000
    73 H28      8.5954   9.6929  14.6162   H         1 RES1   0.0000
    74 C39      8.2305   7.7950  15.2404   C.ar      1 RES1   0.0000
    75 H29      8.4680   7.9434  16.1487   H         1 RES1   0.0000
    76 C40      7.7721   6.5323  14.8382   C.ar      1 RES1   0.0000
    77 H30      7.6865   5.8458  15.4888   H         1 RES1   0.0000
    78 C41      7.4371   6.2509  13.5028   C.ar      1 RES1   0.0000
    79 C42      5.8113   4.7143   8.9936   C.3       1 RES1   0.0000
    80 H31      5.2348   4.2275   9.6194   H         1 RES1   0.0000
    81 H32      6.4444   4.0924   8.5790   H         1 RES1   0.0000
    82 H33      5.2594   5.1308   8.2980   H         1 RES1   0.0000
@<TRIPOS>BOND
     1     1     8    1
     2     2     8    1
     3     3     8    1
     4     4    33    1
     5     5    33    1
     6     6    58    1
     7     7    58    1
     8     9     2    1
     9    10     9   ar
    10    11    10    1
    11    12    10   ar
    12    13    12    1
    13    14    12   ar
    14    15    14    1
    15    16    14   ar
    16    17    16    1
    17    18     3    1
    18    19     3    1
    19    20    19   ar
    20    21    20    1
    21    22    20   ar
    22    23    22    1
    23    24    22   ar
    24    25    24    1
    25    26    24   ar
    26    27    26    1
    27    28     1    1
    28    29     2    1
    29    30    29    1
    30    31    29    1
    31    32    29    1
    32    33     1    1
    33    34     4    1
    34    35    34   ar
    35    36    35    1
    36    37    35   ar
    37    38    37    1
    38    39    37   ar
    39    40    39    1
    40    41    39   ar
    41    42    41    1
    42    43     5    1
    43    44     5    1
    44    45    44   ar
    45    46    45    1
    46    47    45   ar
    47    48    47    1
    48    49    47   ar
    49    50    49    1
    50    51    49   ar
    51    52    51    1
    52    53     1    1
    53    54     4    1
    54    55    54    1
    55    56    54    1
    56    57    54    1
    57    58     1    1
    58    59     6    1
    59    60    59   ar
    60    61    60    1
    61    62    60   ar
    62    63    62    1
    63    64    62   ar
    64    65    64    1
    65    66    64   ar
    66    67    66    1
    67    68     7    1
    68    69     7    1
    69    70    69   ar
    70    71    70    1
    71    72    70   ar
    72    73    72    1
    73    74    72   ar
    74    75    74    1
    75    76    74   ar
    76    77    76    1
    77    78     1    1
    78    79     6    1
    79    80    79    1
    80    81    79    1
    81    82    79    1
    82     9    18   ar
    83    16    18   ar
    84    19    28   ar
    85    26    28   ar
    86    34    43   ar
    87    41    43   ar
    88    44    53   ar
    89    51    53   ar
    90    59    68   ar
    91    66    68   ar
    92    69    78   ar
    93    76    78   ar
@<TRIPOS>SUBSTRUCTURE
     1 RES1        1 GROUP             0 ****  ****    0  