@<TRIPOS>MOLECULE
01
    82    93     1     0     0
SMALL
NO_CHARGES
****
Generated from the CSD

@<TRIPOS>ATOM
     1 Ir1      7.5238   3.6188   4.9856   Ir        1 RES1   0.0000
     2 N1       8.8638   5.0557   2.5167   N.pl3     1 RES1   0.0000
     3 N2       8.4208   2.9344   2.2911   N.pl3     1 RES1   0.0000
     4 N3       8.4542   6.2616   6.4483   N.pl3     1 RES1   0.0000
     5 N4       6.4944   6.3055   5.4964   N.pl3     1 RES1   0.0000
     6 N5      10.4291   2.5582   5.7102   N.pl3     1 RES1   0.0000
     7 N6       8.8502   2.1882   7.1590   N.pl3     1 RES1   0.0000
     8 C1       8.3562   3.9898   3.1805   C.3       1 RES1   0.0000
     9 C2       9.2337   4.7067   1.2271   C.ar      1 RES1   0.0000
    10 C3       9.7645   5.4465   0.1917   C.ar      1 RES1   0.0000
    11 H1       9.9268   6.3766   0.2960   H         1 RES1   0.0000
    12 C4      10.0568   4.8070  -1.0041   C.ar      1 RES1   0.0000
    13 H2      10.4590   5.2877  -1.7174   H         1 RES1   0.0000
    14 C5       9.7550   3.4548  -1.1501   C.ar      1 RES1   0.0000
    15 H3       9.9196   3.0326  -1.9847   H         1 RES1   0.0000
    16 C6       9.2265   2.7149  -0.1226   C.ar      1 RES1   0.0000
    17 H4       9.0521   1.7890  -0.2373   H         1 RES1   0.0000
    18 C7       8.9544   3.3294   1.0732   C.ar      1 RES1   0.0000
    19 C8       7.8164   1.7075   2.7254   C.ar      1 RES1   0.0000
    20 C9       7.8294   0.5559   1.9534   C.ar      1 RES1   0.0000
    21 H5       8.2934   0.5288   1.1254   H         1 RES1   0.0000
    22 C10      7.1468  -0.5559   2.4267   C.ar      1 RES1   0.0000
    23 H6       7.1482  -1.3627   1.9260   H         1 RES1   0.0000
    24 C11      6.4631  -0.4828   3.6303   C.ar      1 RES1   0.0000
    25 H7       5.9578  -1.2289   3.9329   H         1 RES1   0.0000
    26 C12      6.5126   0.6751   4.3984   C.ar      1 RES1   0.0000
    27 H8       6.0539   0.6939   5.2304   H         1 RES1   0.0000
    28 C13      7.2052   1.8037   3.9929   C.ar      1 RES1   0.0000
    29 C14      8.9880   6.4059   3.0318   C.3       1 RES1   0.0000
    30 H9       8.1022   6.8239   3.0722   H         1 RES1   0.0000
    31 H10      9.5687   6.9304   2.4398   H         1 RES1   0.0000
    32 H11      9.3773   6.3787   3.9303   H         1 RES1   0.0000
    33 C15      7.5727   5.4946   5.7402   C.3       1 RES1   0.0000
    34 C16      7.9313   7.5512   6.6335   C.ar      1 RES1   0.0000
    35 C17      8.4825   8.6359   7.2802   C.ar      1 RES1   0.0000
    36 H12      9.3577   8.6066   7.6506   H         1 RES1   0.0000
    37 C18      7.6823   9.7833   7.3637   C.ar      1 RES1   0.0000
    38 H13      8.0127  10.5524   7.8136   H         1 RES1   0.0000
    39 C19      6.4359   9.8105   6.8095   C.ar      1 RES1   0.0000
    40 H14      5.9217  10.6047   6.8943   H         1 RES1   0.0000
    41 C20      5.8766   8.7341   6.1262   C.ar      1 RES1   0.0000
    42 H15      5.0124   8.7759   5.7363   H         1 RES1   0.0000
    43 C21      6.6802   7.5783   6.0506   C.ar      1 RES1   0.0000
    44 C22      5.4388   5.7287   4.7348   C.ar      1 RES1   0.0000
    45 C23      4.3154   6.4100   4.3475   C.ar      1 RES1   0.0000
    46 H16      4.2119   7.3255   4.5797   H         1 RES1   0.0000
    47 C24      3.3355   5.7684   3.6225   C.ar      1 RES1   0.0000
    48 H17      2.5384   6.2261   3.3813   H         1 RES1   0.0000
    49 C25      3.5299   4.4392   3.2457   C.ar      1 RES1   0.0000
    50 H18      2.8691   3.9877   2.7345   H         1 RES1   0.0000
    51 C26      4.6914   3.7787   3.6199   C.ar      1 RES1   0.0000
    52 H19      4.8009   2.8696   3.3695   H         1 RES1   0.0000
    53 C27      5.7153   4.4078   4.3580   C.ar      1 RES1   0.0000
    54 C28      9.7543   5.8165   6.8956   C.3       1 RES1   0.0000
    55 H20     10.1928   5.3149   6.1758   H         1 RES1   0.0000
    56 H21      9.6521   5.2396   7.6793   H         1 RES1   0.0000
    57 H22     10.3032   6.5940   7.1316   H         1 RES1   0.0000
    58 C29      9.1035   2.7609   5.9397   C.3       1 RES1   0.0000
    59 C30     11.0095   1.8664   6.7599   C.ar      1 RES1   0.0000
    60 C31     12.3085   1.4108   6.9386   C.ar      1 RES1   0.0000
    61 H23     12.9722   1.5382   6.2709   H         1 RES1   0.0000
    62 C32     12.5966   0.7670   8.1291   C.ar      1 RES1   0.0000
    63 H24     13.4779   0.4431   8.2778   H         1 RES1   0.0000
    64 C33     11.6437   0.5852   9.0993   C.ar      1 RES1   0.0000
    65 H25     11.8837   0.1651   9.9169   H         1 RES1   0.0000
    66 C34     10.3324   1.0053   8.9076   C.ar      1 RES1   0.0000
    67 H26      9.6708   0.8590   9.5740   H         1 RES1   0.0000
    68 C35     10.0169   1.6427   7.7171   C.ar      1 RES1   0.0000
    69 C36      7.5044   2.2154   7.6154   C.ar      1 RES1   0.0000
    70 C37      7.0797   1.5800   8.7668   C.ar      1 RES1   0.0000
    71 H27      7.6886   1.0973   9.3132   H         1 RES1   0.0000
    72 C38      5.7389   1.6657   9.0980   C.ar      1 RES1   0.0000
    73 H28      5.4198   1.2394   9.8830   H         1 RES1   0.0000
    74 C39      4.8811   2.3554   8.3091   C.ar      1 RES1   0.0000
    75 H29      3.9675   2.4328   8.5595   H         1 RES1   0.0000
    76 C40      5.3306   2.9469   7.1394   C.ar      1 RES1   0.0000
    77 H30      4.7033   3.4130   6.5983   H         1 RES1   0.0000
    78 C41      6.6458   2.8905   6.7221   C.ar      1 RES1   0.0000
    79 C42     11.1560   3.0201   4.5392   C.3       1 RES1   0.0000
    80 H31     11.4458   2.2488   4.0085   H         1 RES1   0.0000
    81 H32     11.9407   3.5342   4.8235   H         1 RES1   0.0000
    82 H33     10.5731   3.5906   3.9955   H         1 RES1   0.0000
@<TRIPOS>BOND
     1     1     8    1
     2     2     8    1
     3     3     8    1
     4     4    33    1
     5     5    33    1
     6     6    58    1
     7     7    58    1
     8     9     2    1
     9    10     9   ar
    10    11    10    1
    11    12    10   ar
    12    13    12    1
    13    14    12   ar
    14    15    14    1
    15    16    14   ar
    16    17    16    1
    17    18     3    1
    18    19     3    1
    19    20    19   ar
    20    21    20    1
    21    22    20   ar
    22    23    22    1
    23    24    22   ar
    24    25    24    1
    25    26    24   ar
    26    27    26    1
    27    28     1    1
    28    29     2    1
    29    30    29    1
    30    31    29    1
    31    32    29    1
    32    33     1    1
    33    34     4    1
    34    35    34   ar
    35    36    35    1
    36    37    35   ar
    37    38    37    1
    38    39    37   ar
    39    40    39    1
    40    41    39   ar
    41    42    41    1
    42    43     5    1
    43    44     5    1
    44    45    44   ar
    45    46    45    1
    46    47    45   ar
    47    48    47    1
    48    49    47   ar
    49    50    49    1
    50    51    49   ar
    51    52    51    1
    52    53     1    1
    53    54     4    1
    54    55    54    1
    55    56    54    1
    56    57    54    1
    57    58     1    1
    58    59     6    1
    59    60    59   ar
    60    61    60    1
    61    62    60   ar
    62    63    62    1
    63    64    62   ar
    64    65    64    1
    65    66    64   ar
    66    67    66    1
    67    68     7    1
    68    69     7    1
    69    70    69   ar
    70    71    70    1
    71    72    70   ar
    72    73    72    1
    73    74    72   ar
    74    75    74    1
    75    76    74   ar
    76    77    76    1
    77    78     1    1
    78    79     6    1
    79    80    79    1
    80    81    79    1
    81    82    79    1
    82     9    18   ar
    83    16    18   ar
    84    19    28   ar
    85    26    28   ar
    86    34    43   ar
    87    41    43   ar
    88    44    53   ar
    89    51    53   ar
    90    59    68   ar
    91    66    68   ar
    92    69    78   ar
    93    76    78   ar
@<TRIPOS>SUBSTRUCTURE
     1 RES1        1 GROUP             0 ****  ****    0  