@<TRIPOS>MOLECULE
01
    64    72     1     0     0
SMALL
NO_CHARGES
****
Generated from the CSD

@<TRIPOS>ATOM
     1 Ir1      6.3077   7.9263  10.4143   Ir        1 RES1   0.0000
     2 N1       6.5986   7.4569   8.3943   N.2       1 RES1   0.0000
     3 N2       5.8284   8.1785   7.5299   N.pl3     1 RES1   0.0000
     4 N3       7.6246   9.4476  10.2976   N.2       1 RES1   0.0000
     5 N4       7.7810  10.1576  11.4548   N.pl3     1 RES1   0.0000
     6 N5       5.1185   6.3345  10.8027   N.2       1 RES1   0.0000
     7 N6       5.7402   5.2772  11.3972   N.pl3     1 RES1   0.0000
     8 F1       0.7789  11.5466   9.3028   F         1 RES1   0.0000
     9 F2       2.3815  12.7422   9.9564   F         1 RES1   0.0000
    10 F3       1.6929  11.2258  11.1788   F         1 RES1   0.0000
    11 F4       2.9660   9.5011  15.3251   F         1 RES1   0.0000
    12 F5       4.4924   8.8998  16.6688   F         1 RES1   0.0000
    13 F6       3.6366   7.5257  15.3479   F         1 RES1   0.0000
    14 F7      11.8083   6.9392  11.7900   F         1 RES1   0.0000
    15 F8      11.8460   5.2240  12.9896   F         1 RES1   0.0000
    16 F9      11.9789   5.0919  10.9028   F         1 RES1   0.0000
    17 C1       4.8248   9.0485   9.4969   C.ar      1 RES1   0.0000
    18 C2       4.8635   9.0634   8.1077   C.ar      1 RES1   0.0000
    19 C3       4.0350   9.8246   7.3145   C.ar      1 RES1   0.0000
    20 H1       4.1309   9.8077   6.3894   H         1 RES1   0.0000
    21 C4       3.0758  10.5970   7.8878   C.ar      1 RES1   0.0000
    22 H2       2.5214  11.1289   7.3630   H         1 RES1   0.0000
    23 C5       2.9400  10.5815   9.2664   C.ar      1 RES1   0.0000
    24 C6       3.7981   9.8283  10.0413   C.ar      1 RES1   0.0000
    25 H3       3.6899   9.8382  10.9649   H         1 RES1   0.0000
    26 C7       6.0597   8.7249  12.2207   C.ar      1 RES1   0.0000
    27 C8       6.9117   9.8090  12.5164   C.ar      1 RES1   0.0000
    28 C9       6.9128  10.4954  13.7191   C.ar      1 RES1   0.0000
    29 H4       7.5207  11.1797  13.8722   H         1 RES1   0.0000
    30 C10      5.9948  10.1397  14.6851   C.ar      1 RES1   0.0000
    31 H5       5.9733  10.5869  15.4995   H         1 RES1   0.0000
    32 C11      5.1043   9.1084  14.4258   C.ar      1 RES1   0.0000
    33 C12      5.1336   8.4265  13.2171   C.ar      1 RES1   0.0000
    34 H6       4.5142   7.7479  13.0684   H         1 RES1   0.0000
    35 C13      7.7103   6.5588  11.1242   C.ar      1 RES1   0.0000
    36 C14      7.1453   5.3771  11.5670   C.ar      1 RES1   0.0000
    37 C15      7.8685   4.3391  12.1039   C.ar      1 RES1   0.0000
    38 H7       7.4381   3.5640  12.3905   H         1 RES1   0.0000
    39 C16      9.2378   4.4583  12.2131   C.ar      1 RES1   0.0000
    40 H8       9.7395   3.7672  12.5847   H         1 RES1   0.0000
    41 C17      9.8526   5.5997  11.7702   C.ar      1 RES1   0.0000
    42 C18      9.0974   6.6279  11.2319   C.ar      1 RES1   0.0000
    43 H9       9.5324   7.3922  10.9301   H         1 RES1   0.0000
    44 C19      7.3615   6.6909   7.6375   C.2       1 RES1   0.0000
    45 H10      7.9582   6.0540   7.9591   H         1 RES1   0.0000
    46 C20      7.1454   6.9721   6.2969   C.2       1 RES1   0.0000
    47 H11      7.5871   6.5960   5.5704   H         1 RES1   0.0000
    48 C21      6.1588   7.9037   6.2574   C.2       1 RES1   0.0000
    49 H12      5.7839   8.2798   5.4931   H         1 RES1   0.0000
    50 C22      8.5028   9.9510   9.4529   C.2       1 RES1   0.0000
    51 H13      8.6352   9.6417   8.5854   H         1 RES1   0.0000
    52 C23      9.1945  10.9900  10.0156   C.2       1 RES1   0.0000
    53 H14      9.8473  11.5117   9.6091   H         1 RES1   0.0000
    54 C24      8.7308  11.1086  11.3031   C.2       1 RES1   0.0000
    55 H15      9.0139  11.7218  11.9431   H         1 RES1   0.0000
    56 C25      3.8368   6.0269  10.7208   C.2       1 RES1   0.0000
    57 H16      3.1794   6.5588  10.3356   H         1 RES1   0.0000
    58 C26      3.6237   4.7666  11.3062   C.2       1 RES1   0.0000
    59 H17      2.8093   4.3296  11.3987   H         1 RES1   0.0000
    60 C27      4.8577   4.3161  11.7141   C.2       1 RES1   0.0000
    61 H18      5.0436   3.5030  12.1282   H         1 RES1   0.0000
    62 C28      1.9253  11.4413   9.8988   C.3       1 RES1   0.0000
    63 C29      4.0529   8.7880  15.4222   C.3       1 RES1   0.0000
    64 C30     11.3216   5.6868  11.8946   C.3       1 RES1   0.0000
@<TRIPOS>BOND
     1     1     2    1
     2     2     3    1
     3     3    18    1
     4     4     1    1
     5     5     4    1
     6     6     1    1
     7     7     6    1
     8     8    62    1
     9     9    62    1
    10    10    62    1
    11    11    63    1
    12    12    63    1
    13    13    63    1
    14    14    64    1
    15    15    64    1
    16    16    64    1
    17    17     1    1
    18    18    17   ar
    19    19    18   ar
    20    20    19    1
    21    21    19   ar
    22    22    21    1
    23    23    21   ar
    24    24    17   ar
    25    25    24    1
    26    26     1    1
    27    27     5    1
    28    28    27   ar
    29    29    28    1
    30    30    28   ar
    31    31    30    1
    32    32    30   ar
    33    33    26   ar
    34    34    33    1
    35    35     1    1
    36    36     7    1
    37    37    36   ar
    38    38    37    1
    39    39    37   ar
    40    40    39    1
    41    41    39   ar
    42    42    35   ar
    43    43    42    1
    44    44     2    2
    45    45    44    1
    46    46    44    1
    47    47    46    1
    48    48     3    1
    49    49    48    1
    50    50     4    2
    51    51    50    1
    52    52    50    1
    53    53    52    1
    54    54     5    1
    55    55    54    1
    56    56     6    2
    57    57    56    1
    58    58    56    1
    59    59    58    1
    60    60     7    1
    61    61    60    1
    62    62    23    1
    63    63    32    1
    64    64    41    1
    65    23    24   ar
    66    26    27   ar
    67    32    33   ar
    68    35    36   ar
    69    41    42   ar
    70    46    48    2
    71    52    54    2
    72    58    60    2
@<TRIPOS>SUBSTRUCTURE
     1 RES1        1 GROUP             0 ****  ****    0  